&share
 wrf_core = 'ARW',
 max_dom = 1,
%DATES%
 io_form_geogrid = 2,
/

&geogrid
 parent_id         =   1,   1,  2,
 parent_grid_ratio =   1,   3,  3,
 i_parent_start    =   1,  20, 60,
 j_parent_start    =   1,  10, 35,
%GEOS%
 map_proj = 'mercator',
 geog_data_path = '/gpfs/fs1/work/wrfhelp/WPS_GEOG'
/

&ungrib
 out_format = 'WPS',
%PREFIX%
/

&metgrid
%FGNAME%
 io_form_metgrid = 2,
/








